! One IDF comment

a_function = λ param {
  ! A second comment
  Version,
    10;
}
